[General]
network = s_10h_1000B_10ms_20phased_fp

check-signals = true
record-eventlog = false
debug-on-errors = true
result-dir = result_dir
sim-time-limit = 0.1s

# Debug
**.displayAddresses = true
**.verbose = true
**.promiscuous = true
**.registerProtocol = true

**.*.clock.clockRate = "1us"

# MAC Addresses

**.h1.eth.address = "00:00:00:00:00:01"
**.h3.eth.address = "00:00:00:00:00:03"
**.h4.eth.address = "00:00:00:00:00:06"
**.h6.eth.address = "00:00:00:00:00:07"
**.h5.eth.address = "00:00:00:00:00:0a"
**.h8.eth.address = "00:00:00:00:00:0b"
**.h9.eth.address = "00:00:00:00:00:0c"
**.h7.eth.address = "00:00:00:00:00:0d"
**.h10.eth.address = "00:00:00:00:00:0f"
**.h2.eth.address = "00:00:00:00:00:13"

# Switches

**.s2.processingDelay[*].delay = 5e-06s
**.s1.processingDelay[*].delay = 5e-06s
**.s10.processingDelay[*].delay = 5e-06s
**.s6.processingDelay[*].delay = 5e-06s
**.s9.processingDelay[*].delay = 5e-06s
**.s5.processingDelay[*].delay = 5e-06s
**.s4.processingDelay[*].delay = 5e-06s
**.s3.processingDelay[*].delay = 5e-06s
**.s7.processingDelay[*].delay = 5e-06s
**.s8.processingDelay[*].delay = 5e-06s
**.filteringDatabase.database = xmldoc("s_10h_1000B_10ms_20phased_fp_gen_routing.xml", "/filteringDatabases/")
**.filteringDatabase.cycle = xmldoc("s_10h_1000B_10ms_20phased_fp_gen_schedule.xml", "/schedule/")

**.gateController.initialSchedule = xmldoc("s_10h_1000B_10ms_20phased_fp_gen_schedule.xml")
**.gateController.enableHoldAndRelease = false
**.eth[*].queuing.tsAlgorithms[0].typename = "StrictPriority"
**.eth[*].queuing.tsAlgorithms[1].typename = "StrictPriority"
**.eth[*].queuing.tsAlgorithms[2].typename = "StrictPriority"
**.eth[*].queuing.tsAlgorithms[3].typename = "StrictPriority"
**.eth[*].queuing.tsAlgorithms[4].typename = "StrictPriority"
**.eth[*].queuing.tsAlgorithms[5].typename = "StrictPriority"
**.eth[*].queuing.tsAlgorithms[6].typename = "StrictPriority"
**.eth[*].queuing.tsAlgorithms[7].typename = "StrictPriority"


**.s2.eth[2].queuing.queues[6].expressQueue = false

**.s1.eth[0].queuing.queues[6].expressQueue = false

**.s10.eth[1].queuing.queues[6].expressQueue = false

**.s6.eth[0].queuing.queues[6].expressQueue = false

**.s9.eth[0].queuing.queues[6].expressQueue = false

**.s5.eth[1].queuing.queues[6].expressQueue = false

**.s4.eth[1].queuing.queues[6].expressQueue = false

**.s3.eth[0].queuing.queues[6].expressQueue = false

**.s7.eth[0].queuing.queues[6].expressQueue = false

**.s8.eth[0].queuing.queues[6].expressQueue = false

# Buffer capacity of queues

**.queues[*].bufferCapacity = 363360b

# Set switches to enable preemption

**.s2.eth[2].mac.enablePreemptingFrames = true

**.s1.eth[0].mac.enablePreemptingFrames = true

**.s10.eth[1].mac.enablePreemptingFrames = true

**.s6.eth[0].mac.enablePreemptingFrames = true

**.s9.eth[0].mac.enablePreemptingFrames = true

**.s5.eth[1].mac.enablePreemptingFrames = true

**.s4.eth[1].mac.enablePreemptingFrames = true

**.s3.eth[0].mac.enablePreemptingFrames = true

**.s7.eth[0].mac.enablePreemptingFrames = true

**.s8.eth[0].mac.enablePreemptingFrames = true


# Schedule/Routing Swap


# Scheduled traffic

**.h1.trafGenSchedApp.initialSchedule = xmldoc("s_10h_1000B_10ms_20phased_fp_gen_schedule.xml")

**.h3.trafGenSchedApp.initialSchedule = xmldoc("s_10h_1000B_10ms_20phased_fp_gen_schedule.xml")

**.h4.trafGenSchedApp.initialSchedule = xmldoc("s_10h_1000B_10ms_20phased_fp_gen_schedule.xml")

**.h6.trafGenSchedApp.initialSchedule = xmldoc("s_10h_1000B_10ms_20phased_fp_gen_schedule.xml")

**.h5.trafGenSchedApp.initialSchedule = xmldoc("s_10h_1000B_10ms_20phased_fp_gen_schedule.xml")

**.h8.trafGenSchedApp.initialSchedule = xmldoc("s_10h_1000B_10ms_20phased_fp_gen_schedule.xml")

**.h9.trafGenSchedApp.initialSchedule = xmldoc("s_10h_1000B_10ms_20phased_fp_gen_schedule.xml")

**.h7.trafGenSchedApp.initialSchedule = xmldoc("s_10h_1000B_10ms_20phased_fp_gen_schedule.xml")

**.h10.trafGenSchedApp.initialSchedule = xmldoc("s_10h_1000B_10ms_20phased_fp_gen_schedule.xml")

**.h2.trafGenSchedApp.initialSchedule = xmldoc("s_10h_1000B_10ms_20phased_fp_gen_schedule.xml")


# Best Effort traffic
