%description:
TODO

%file: package.ned
package @TESTNAME@;
@namespace(@TESTNAME@);

%file: test.ned
package @TESTNAME@;

import nesting.common.time.IdealOscillator;
import nesting.common.time.RealtimeClock;

network Test
{
    @display("bgb=376.77332,118.33333");
    submodules:
        oscillator: IdealOscillator {
            @display("p=61.53333,50.173332");
        }
        clock: RealtimeClock {
            @display("p=169.45332,50.173332");
            oscillatorModule = "^.oscillator";
        }
        testRealtimeClock: TestRealtimeClock {
            @display("p=284.94666,50.173332");
        }
}

%file: TestRealtimeClock.ned
package @TESTNAME@;

simple TestRealtimeClock
{
    parameters:
        string clockModule = "^.clock";
}


%file: TestRealtimeClock.h
#ifndef __@TESTNAME@_TestRealtimeClock_H_
#define __@TESTNAME@_TestRealtimeClock_H_

#include <omnetpp.h>

#include "nesting/common/time/IClock2.h"
#include "nesting/common/time/IClock2TimestampListener.h"
#include "nesting/common/time/RealtimeClock.h"

using namespace omnetpp;
using namespace nesting;

namespace @TESTNAME@ {

class TestRealtimeClock : public cSimpleModule, public IClock2TimestampListener
{
protected:
    IClock2* clock;
    unsigned subscribedTimestampCount = 0;
protected:
    virtual void initialize() override;
    virtual void finish() override;
public:
    virtual void onTimestamp(IClock2& clock, const IClock2Timestamp& timestamp) override;
};

} // namespace @TESTNAME@

#endif

%file: TestRealtimeClock.cc
#include "TestRealtimeClock.h"

#include "inet/common/ModuleAccess.h"

#include <iostream>

namespace @TESTNAME@ {

Define_Module(TestRealtimeClock);

void TestRealtimeClock::initialize()
{
    clock = check_and_cast<IClock2*>(getModuleByPath(par("clockModule")));
    clock->subscribeDelta(*this, SimTime(1, SIMTIME_US)); 
}

void TestRealtimeClock::finish()
{
	if (subscribedTimestampCount != 1) {
		throw cRuntimeError("Expected 1 timestamp to be scheduled!");
	}
}

void TestRealtimeClock::onTimestamp(IClock2& clock, const IClock2Timestamp& timestamp)
{
    Enter_Method("tick");
    subscribedTimestampCount++;
}

} // namespace @TESTNAME@

%inifile: omnetpp.ini
[General]
network = Test
sim-time-limit = 1s

%exitcode: 0