[General]
network = s_10h_300B_10ms_20burst_5msol_5msoh

check-signals = true
record-eventlog = false
debug-on-errors = true
result-dir = result_dir
sim-time-limit = 0.1s

# Debug
**.displayAddresses = true
**.verbose = true
**.promiscuous = true
**.registerProtocol = true

**.*.clock.clockRate = "1us"

# MAC Addresses

**.h9.eth.address = "00:00:00:00:00:03"
**.h2.eth.address = "00:00:00:00:00:04"
**.h5.eth.address = "00:00:00:00:00:06"
**.h8.eth.address = "00:00:00:00:00:09"
**.h3.eth.address = "00:00:00:00:00:0a"
**.h7.eth.address = "00:00:00:00:00:0c"
**.h1.eth.address = "00:00:00:00:00:0e"
**.h10.eth.address = "00:00:00:00:00:0f"
**.h4.eth.address = "00:00:00:00:00:11"
**.h6.eth.address = "00:00:00:00:00:13"

# Switches

**.s3.processingDelay[*].delay = 5e-06s
**.s9.processingDelay[*].delay = 5e-06s
**.s7.processingDelay[*].delay = 5e-06s
**.s8.processingDelay[*].delay = 5e-06s
**.s1.processingDelay[*].delay = 5e-06s
**.s5.processingDelay[*].delay = 5e-06s
**.s4.processingDelay[*].delay = 5e-06s
**.s10.processingDelay[*].delay = 5e-06s
**.s6.processingDelay[*].delay = 5e-06s
**.s2.processingDelay[*].delay = 5e-06s
**.filteringDatabase.database = xmldoc("s_10h_300B_10ms_20burst_5msol_5msoh_gen_routing.xml", "/filteringDatabases/")
**.filteringDatabase.cycle = xmldoc("s_10h_300B_10ms_20burst_5msol_5msoh_gen_schedule.xml", "/schedule/")

**.gateController.initialSchedule = xmldoc("s_10h_300B_10ms_20burst_5msol_5msoh_gen_schedule.xml")
**.gateController.enableHoldAndRelease = false
**.eth[*].queuing.tsAlgorithms[0].typename = "StrictPriority"
**.eth[*].queuing.tsAlgorithms[1].typename = "StrictPriority"
**.eth[*].queuing.tsAlgorithms[2].typename = "StrictPriority"
**.eth[*].queuing.tsAlgorithms[3].typename = "StrictPriority"
**.eth[*].queuing.tsAlgorithms[4].typename = "StrictPriority"
**.eth[*].queuing.tsAlgorithms[5].typename = "StrictPriority"
**.eth[*].queuing.tsAlgorithms[6].typename = "StrictPriority"
**.eth[*].queuing.tsAlgorithms[7].typename = "StrictPriority"

**.queues[*].expressQueue = true

# Buffer capacity of queues

**.queues[*].bufferCapacity = 363360b

# Set switches to enable preemption


# Schedule/Routing Swap


# Scheduled traffic

**.h9.trafGenSchedApp.initialSchedule = xmldoc("s_10h_300B_10ms_20burst_5msol_5msoh_gen_schedule.xml")

**.h2.trafGenSchedApp.initialSchedule = xmldoc("s_10h_300B_10ms_20burst_5msol_5msoh_gen_schedule.xml")

**.h5.trafGenSchedApp.initialSchedule = xmldoc("s_10h_300B_10ms_20burst_5msol_5msoh_gen_schedule.xml")

**.h8.trafGenSchedApp.initialSchedule = xmldoc("s_10h_300B_10ms_20burst_5msol_5msoh_gen_schedule.xml")

**.h3.trafGenSchedApp.initialSchedule = xmldoc("s_10h_300B_10ms_20burst_5msol_5msoh_gen_schedule.xml")

**.h7.trafGenSchedApp.initialSchedule = xmldoc("s_10h_300B_10ms_20burst_5msol_5msoh_gen_schedule.xml")

**.h1.trafGenSchedApp.initialSchedule = xmldoc("s_10h_300B_10ms_20burst_5msol_5msoh_gen_schedule.xml")

**.h10.trafGenSchedApp.initialSchedule = xmldoc("s_10h_300B_10ms_20burst_5msol_5msoh_gen_schedule.xml")

**.h4.trafGenSchedApp.initialSchedule = xmldoc("s_10h_300B_10ms_20burst_5msol_5msoh_gen_schedule.xml")

**.h6.trafGenSchedApp.initialSchedule = xmldoc("s_10h_300B_10ms_20burst_5msol_5msoh_gen_schedule.xml")


# Best Effort traffic
