[General]
network = Test
record-eventlog = false 
debug-on-errors = true
sim-time-limit = 1s

**.configurator.config = xmldoc("config.xml")
