[General]
network = s_10h_1496B_7ms_20burst_5msol_2msoh_5msjittered

check-signals = true
record-eventlog = false
debug-on-errors = true
result-dir = result_dir
sim-time-limit = 0.1s

# Debug
**.displayAddresses = true
**.verbose = true
**.promiscuous = true
**.registerProtocol = true

**.*.clock.clockRate = "1us"

# MAC Addresses

**.h9.eth.address = "00:00:00:00:00:01"
**.h1.eth.address = "00:00:00:00:00:07"
**.h10.eth.address = "00:00:00:00:00:08"
**.h4.eth.address = "00:00:00:00:00:09"
**.h5.eth.address = "00:00:00:00:00:0a"
**.h8.eth.address = "00:00:00:00:00:0b"
**.h7.eth.address = "00:00:00:00:00:0e"
**.h3.eth.address = "00:00:00:00:00:0f"
**.h6.eth.address = "00:00:00:00:00:11"
**.h2.eth.address = "00:00:00:00:00:14"

# Switches

**.s4.processingDelay[*].delay = 5us
**.s3.processingDelay[*].delay = 5us
**.s5.processingDelay[*].delay = 5us
**.s7.processingDelay[*].delay = 5us
**.s10.processingDelay[*].delay = 5us
**.s6.processingDelay[*].delay = 5us
**.s1.processingDelay[*].delay = 5us
**.s2.processingDelay[*].delay = 5us
**.s9.processingDelay[*].delay = 5us
**.s8.processingDelay[*].delay = 5us
**.filteringDatabase.database = xmldoc("s_10h_1496B_7ms_20burst_5msol_2msoh_5msjittered_gen_routing.xml", "/filteringDatabases/")
**.filteringDatabase.cycle = xmldoc("s_10h_1496B_7ms_20burst_5msol_2msoh_5msjittered_gen_schedule.xml", "/schedule/")

**.gateController.initialSchedule = xmldoc("s_10h_1496B_7ms_20burst_5msol_2msoh_5msjittered_gen_schedule.xml")
**.gateController.enableHoldAndRelease = false
**.eth[*].queuing.tsAlgorithms[0].typename = "StrictPriority"
**.eth[*].queuing.tsAlgorithms[1].typename = "StrictPriority"
**.eth[*].queuing.tsAlgorithms[2].typename = "StrictPriority"
**.eth[*].queuing.tsAlgorithms[3].typename = "StrictPriority"
**.eth[*].queuing.tsAlgorithms[4].typename = "StrictPriority"
**.eth[*].queuing.tsAlgorithms[5].typename = "StrictPriority"
**.eth[*].queuing.tsAlgorithms[6].typename = "StrictPriority"
**.eth[*].queuing.tsAlgorithms[7].typename = "StrictPriority"



# Buffer capacity of queues

**.queues[*].bufferCapacity = 363360b

# Set switches to enable preemption


# Schedule/Routing Swap


# Scheduled traffic

**.h2.trafGenSchedApp.jitter = 7ms
**.h3.trafGenSchedApp.jitter = 7ms
**.h4.trafGenSchedApp.jitter = 7ms
**.h5.trafGenSchedApp.jitter = 7ms
**.h6.trafGenSchedApp.jitter = 7ms
**.h7.trafGenSchedApp.jitter = 7ms
**.h8.trafGenSchedApp.jitter = 7ms
**.h9.trafGenSchedApp.jitter = 7ms

**.h2.trafGenSchedApp.seed = 100
**.h3.trafGenSchedApp.seed = 100
**.h4.trafGenSchedApp.seed = 100
**.h5.trafGenSchedApp.seed = 100
**.h6.trafGenSchedApp.seed = 100
**.h7.trafGenSchedApp.seed = 100
**.h8.trafGenSchedApp.seed = 100
**.h9.trafGenSchedApp.seed = 100


**.h9.trafGenSchedApp.initialSchedule = xmldoc("s_10h_1496B_7ms_20burst_5msol_2msoh_5msjittered_gen_schedule.xml")

**.h1.trafGenSchedApp.initialSchedule = xmldoc("s_10h_1496B_7ms_20burst_5msol_2msoh_5msjittered_gen_schedule.xml")

**.h10.trafGenSchedApp.initialSchedule = xmldoc("s_10h_1496B_7ms_20burst_5msol_2msoh_5msjittered_gen_schedule.xml")

**.h4.trafGenSchedApp.initialSchedule = xmldoc("s_10h_1496B_7ms_20burst_5msol_2msoh_5msjittered_gen_schedule.xml")

**.h5.trafGenSchedApp.initialSchedule = xmldoc("s_10h_1496B_7ms_20burst_5msol_2msoh_5msjittered_gen_schedule.xml")

**.h8.trafGenSchedApp.initialSchedule = xmldoc("s_10h_1496B_7ms_20burst_5msol_2msoh_5msjittered_gen_schedule.xml")

**.h7.trafGenSchedApp.initialSchedule = xmldoc("s_10h_1496B_7ms_20burst_5msol_2msoh_5msjittered_gen_schedule.xml")

**.h3.trafGenSchedApp.initialSchedule = xmldoc("s_10h_1496B_7ms_20burst_5msol_2msoh_5msjittered_gen_schedule.xml")

**.h6.trafGenSchedApp.initialSchedule = xmldoc("s_10h_1496B_7ms_20burst_5msol_2msoh_5msjittered_gen_schedule.xml")

**.h2.trafGenSchedApp.initialSchedule = xmldoc("s_10h_1496B_7ms_20burst_5msol_2msoh_5msjittered_gen_schedule.xml")


# Best Effort traffic
