[General]
network = TestNetwork

check-signals = false
record-eventlog = true 
debug-on-errors = true
result-dir = 03_results_FramePreemptionTooLate
sim-time-limit = 230us

# debug
**.displayAddresses = true
**.verbose = true
**.promiscuous = true
**.registerProtocol = true

**.*.clock.clockRate = "1us"

# MAC Addresses
**.robotController.eth.mac.address = "00-00-00-00-00-01"
**.workstation1.eth.mac.address = "00-00-00-00-00-02"
**.sink.eth.mac.address = "00-00-00-00-00-03"

# Switches
**.switch*.processingDelay[*].delay = 5us
**.filteringDatabase.database = xmldoc("03_results_FramePreemptionTooLate/03_FramePreemptionTooLate_Routing.xml", "/filteringDatabases/")
**.filteringDatabase.cycle = xmldoc("03_results_FramePreemptionTooLate/03_FramePreemptionTooLate_Schedule.xml", "/schedule/")

**.gateController.initialSchedule = xmldoc("03_results_FramePreemptionTooLate/03_FramePreemptionTooLate_Schedule.xml")
**.gateController.enableHoldAndRelease = false
**.switch*.queuing[*].tsAlgorithms[0].typename = "StrictPriority"
**.switch*.queuing[*].tsAlgorithms[1].typename = "StrictPriority"
**.switch*.queuing[*].tsAlgorithms[2].typename = "StrictPriority"
**.switch*.queuing[*].tsAlgorithms[3].typename = "StrictPriority"
**.switch*.queuing[*].tsAlgorithms[4].typename = "StrictPriority"
**.switch*.queuing[*].tsAlgorithms[5].typename = "StrictPriority"
**.switch*.queuing[*].tsAlgorithms[6].typename = "StrictPriority"
**.switch*.queuing[*].tsAlgorithms[7].typename = "StrictPriority"
**.queues[0].expressQueue = false
**.queues[1].expressQueue = false
**.queues[2].expressQueue = false
**.queues[3].expressQueue = false
**.queues[4].expressQueue = false
**.queues[5].expressQueue = false
**.queues[6].expressQueue = false
**.queues[7].expressQueue = true

**.queues[*].bufferCapacity = 363360b

**.switchA.eth[2].mac.enablePreemptingFrames = true

# Robot Controller
**.robotController.tsn_app.initialSchedule = xmldoc("03_results_FramePreemptionTooLate/03_FramePreemptionTooLate_Schedule.xml")

# Workstation
**.workstation1.trafGenQueue.destAddress = "00-00-00-00-00-03"
**.workstation1.trafGenQueue.packetLength = 600Byte - 4Byte # MTU-Size - VLAN-Tag-Size
**.workstation1.trafGenQueue.vlanTagEnabled = true
**.workstation1.trafGenQueue.pcp = 6

# Sink
**.sink.app.numPacketsPerBurst = 0
**.sink.app.sendInterval = 1ms
**.sink.app.packetLength = 100B
